Version 4
SHEET 1 880 680
WIRE 160 112 160 48
WIRE 128 128 -48 128
WIRE 304 144 192 144
WIRE 128 160 48 160
WIRE 160 240 160 176
FLAG 160 320 0
FLAG 160 -32 0
FLAG 48 240 0
FLAG -48 208 0
FLAG 304 224 0
SYMBOL voltage 160 64 R180
WINDOW 0 24 96 Left 2
WINDOW 3 24 16 Left 2
WINDOW 123 0 0 Left 0
WINDOW 39 0 0 Left 0
SYMATTR InstName V1
SYMATTR Value 12
SYMBOL voltage 160 336 R180
WINDOW 0 24 96 Left 2
WINDOW 3 24 16 Left 2
WINDOW 123 0 0 Left 0
WINDOW 39 0 0 Left 0
SYMATTR InstName V2
SYMATTR Value 12
SYMBOL voltage -48 112 R0
WINDOW 3 -392 -17 Left 2
WINDOW 123 0 0 Left 0
WINDOW 39 0 0 Left 0
SYMATTR InstName V3
SYMATTR Value PULSE(-12 12 0 0.00001 0.00001 0 0.00002)
SYMBOL voltage 48 144 R0
WINDOW 3 -135 136 Left 2
WINDOW 123 0 0 Left 0
WINDOW 39 0 0 Left 0
SYMATTR InstName V4
SYMATTR Value SINE(0 6 1000)
SYMBOL res 288 128 R0
SYMATTR InstName R1
SYMATTR Value 100
SYMBOL OpAmps\\OP27 160 80 R0
SYMATTR InstName U1
TEXT -426 344 Left 2 !.tran 0 0.001 0
