Version 4
SHEET 1 880 680
WIRE 192 96 48 96
WIRE 320 96 304 96
WIRE 400 96 384 96
WIRE 496 96 400 96
WIRE 464 128 464 80
WIRE 464 128 112 128
WIRE 48 144 48 96
WIRE 80 144 48 144
WIRE 400 144 400 96
WIRE 432 144 400 144
WIRE 192 160 192 96
WIRE 192 160 144 160
WIRE 208 160 192 160
WIRE 496 160 496 96
WIRE -112 176 -192 176
WIRE -32 176 -32 96
WIRE -32 176 -48 176
WIRE -16 176 -32 176
WIRE 64 176 48 176
WIRE 80 176 64 176
WIRE 208 176 208 160
WIRE 304 176 304 96
WIRE 304 176 288 176
WIRE 320 176 304 176
WIRE 416 176 400 176
WIRE 432 176 416 176
WIRE 464 192 112 192
WIRE 64 208 64 176
WIRE 416 224 416 176
WIRE 464 224 464 192
FLAG 64 288 0
FLAG 416 288 0
FLAG 464 304 0
FLAG 464 0 0
FLAG -192 256 0
SYMBOL OpAmps\\OP113 112 96 R0
SYMATTR InstName U1
SYMBOL OpAmps\\OP113 464 96 R0
SYMATTR InstName U2
SYMBOL cap 48 160 R90
WINDOW 0 0 32 VBottom 2
WINDOW 3 32 32 VTop 2
SYMATTR InstName C1
SYMATTR Value 100n
SYMBOL cap -48 160 R90
WINDOW 0 0 32 VBottom 2
WINDOW 3 32 32 VTop 2
SYMATTR InstName C2
SYMATTR Value 100n
SYMBOL cap 384 80 R90
WINDOW 0 0 32 VBottom 2
WINDOW 3 -53 54 VTop 2
SYMATTR InstName C3
SYMATTR Value 2.25n
SYMBOL cap 432 288 R180
WINDOW 0 24 56 Left 2
WINDOW 3 24 8 Left 2
SYMATTR InstName C4
SYMATTR Value 1.13n
SYMBOL res 416 160 R90
WINDOW 0 0 56 VBottom 2
WINDOW 3 32 56 VTop 2
SYMATTR InstName R1
SYMATTR Value 10k
SYMBOL res 304 160 R90
WINDOW 0 0 56 VBottom 2
WINDOW 3 32 56 VTop 2
SYMATTR InstName R2
SYMATTR Value 10k
SYMBOL res 80 304 R180
WINDOW 0 -40 72 Left 2
WINDOW 3 -26 43 Left 2
SYMATTR InstName R3
SYMATTR Value 22.5k
SYMBOL res -48 112 R270
WINDOW 0 32 56 VTop 2
WINDOW 3 87 49 VBottom 2
SYMATTR InstName R4
SYMATTR Value 11k
SYMBOL voltage 464 96 R180
WINDOW 0 24 96 Left 2
WINDOW 3 24 16 Left 2
WINDOW 123 0 0 Left 0
WINDOW 39 0 0 Left 0
SYMATTR InstName V1
SYMATTR Value 12
SYMBOL voltage 464 320 R180
WINDOW 0 -64 79 Left 2
WINDOW 3 -55 45 Left 2
WINDOW 123 0 0 Left 0
WINDOW 39 0 0 Left 0
SYMATTR InstName V2
SYMATTR Value 12
SYMBOL voltage -192 160 R0
WINDOW 123 24 124 Left 2
WINDOW 39 0 0 Left 0
SYMATTR InstName V3
SYMATTR Value SINE(0 12 100000)
SYMATTR Value2 AC 12
TEXT -226 328 Left 2 !.ac dec 100 10 100000k
